[General]
network = Network
sim-time-limit = 100000s

[Config joystick]
